Version 4.1
SHEET 1 2164 1044
WIRE 992 -464 800 -464
WIRE 1104 -464 1056 -464
WIRE 1152 -464 1104 -464
WIRE 1408 -464 1232 -464
WIRE 480 -432 288 -432
WIRE 64 -416 -224 -416
WIRE 1104 -400 1104 -464
WIRE 1088 -352 1008 -352
WIRE 1248 -352 1184 -352
WIRE 1360 -352 1248 -352
WIRE 1552 -352 1360 -352
WIRE -80 -336 -128 -336
WIRE 64 -336 64 -416
WIRE 64 -336 -16 -336
WIRE 144 -336 64 -336
WIRE 224 -336 208 -336
WIRE 368 -336 336 -336
WIRE 480 -336 480 -432
WIRE 480 -336 432 -336
WIRE 528 -336 480 -336
WIRE 656 -336 592 -336
WIRE 1008 -304 1008 -352
WIRE -128 -240 -128 -336
WIRE 224 -240 224 -336
WIRE 224 -240 -128 -240
WIRE 1552 -240 1552 -272
WIRE 336 -224 336 -336
WIRE 656 -224 656 -336
WIRE 656 -224 336 -224
WIRE 1552 -224 1552 -240
WIRE -224 -96 -224 -416
WIRE 0 -96 -224 -96
WIRE 32 -96 0 -96
WIRE 224 -96 224 -240
WIRE 224 -96 96 -96
WIRE 288 -96 288 -432
WIRE 416 -96 288 -96
WIRE 480 -96 416 -96
WIRE 656 -96 656 -224
WIRE 656 -96 544 -96
WIRE 1552 -96 1552 -160
WIRE 832 -32 784 -32
WIRE 1008 -32 912 -32
WIRE 848 80 848 -160
WIRE 80 96 80 0
WIRE 512 96 512 16
WIRE 1008 112 1008 -32
WIRE 1008 112 928 112
WIRE 1120 112 1008 112
WIRE 224 128 224 -96
WIRE 224 128 160 128
WIRE 240 128 224 128
WIRE 384 128 320 128
WIRE 656 128 656 -96
WIRE 656 128 592 128
WIRE 688 128 688 -384
WIRE 688 128 656 128
WIRE 704 128 688 128
WIRE 784 128 784 -32
WIRE 816 128 784 128
WIRE 0 144 0 -96
WIRE 48 144 0 144
WIRE 384 144 384 128
WIRE 416 144 416 -96
WIRE 416 144 384 144
WIRE 480 144 416 144
WIRE 0 256 0 144
WIRE 176 256 0 256
WIRE 1008 256 1008 112
WIRE 1008 256 256 256
WIRE 80 272 80 160
WIRE 848 320 848 144
WIRE 512 336 512 160
WIRE 976 416 784 416
WIRE 1088 416 1040 416
WIRE 1136 416 1088 416
WIRE 1392 416 1216 416
WIRE 224 448 224 128
WIRE 576 448 224 448
WIRE 1088 480 1088 416
WIRE 1072 528 992 528
WIRE 1232 528 1168 528
WIRE 1344 528 1232 528
WIRE 1536 528 1344 528
WIRE 992 576 992 528
WIRE 1536 640 1536 608
WIRE 1536 656 1536 640
WIRE 1536 784 1536 720
FLAG 80 0 +15
FLAG 80 272 -15
FLAG 48 112 0
FLAG 480 112 0
FLAG 512 16 +15
FLAG 512 336 -15
FLAG 816 96 0
FLAG -336 176 0
FLAG -208 176 0
FLAG -336 96 +15
FLAG -208 96 -15
FLAG 688 -384 Vcos
FLAG 1136 -352 0
FLAG 1248 -272 0
FLAG 1408 -384 0
FLAG 1552 -240 VIFINAL
FLAG 1360 -352 Vif
FLAG 1120 528 0
FLAG 1232 608 0
FLAG 1392 496 0
FLAG 1536 784 0
FLAG 1536 640 VQFINAL
FLAG 1344 528 Vqf
FLAG 784 416 Vsin
FLAG 800 -464 Vcos
FLAG 1552 -96 0
FLAG 576 448 Vsin
FLAG 848 -160 +15
FLAG 848 320 -15
FLAG 1120 112 Vinv
FLAG 1008 -304 Vin
FLAG 992 576 Vin
FLAG -464 544 0
FLAG -464 464 Vin
SYMBOL UA741 80 128 R0
SYMATTR InstName U1
SYMBOL res 272 240 R90
WINDOW 0 0 56 VBottom 2
WINDOW 3 32 56 VTop 2
SYMATTR InstName R1
SYMATTR Value 1.3k
SYMBOL cap 96 -112 R90
WINDOW 0 0 32 VBottom 2
WINDOW 3 32 32 VTop 2
SYMATTR InstName C1
SYMATTR Value 1n
SYMBOL res 336 112 R90
WINDOW 0 0 56 VBottom 2
WINDOW 3 32 56 VTop 2
SYMATTR InstName R2
SYMATTR Value 1.3k
SYMBOL UA741 512 128 R0
SYMATTR InstName U2
SYMBOL cap 544 -112 R90
WINDOW 0 0 32 VBottom 2
WINDOW 3 32 32 VTop 2
SYMATTR InstName C2
SYMATTR Value 1n
SYMBOL res 800 112 R90
WINDOW 0 0 56 VBottom 2
WINDOW 3 32 56 VTop 2
SYMATTR InstName R3
SYMATTR Value 1.3k
SYMBOL UA741 848 112 R0
SYMATTR InstName U3
SYMBOL res 928 -48 R90
WINDOW 0 0 56 VBottom 2
WINDOW 3 32 56 VTop 2
SYMATTR InstName R4
SYMATTR Value 1.3k
SYMBOL diode 208 -352 R90
WINDOW 0 0 32 VBottom 2
WINDOW 3 32 32 VTop 2
SYMATTR InstName D1
SYMATTR Value 1N4148
SYMBOL diode -16 -352 R90
WINDOW 0 0 32 VBottom 2
WINDOW 3 32 32 VTop 2
SYMATTR InstName D2
SYMATTR Value 1N4148
SYMBOL diode 592 -352 R90
WINDOW 0 0 32 VBottom 2
WINDOW 3 32 32 VTop 2
SYMATTR InstName D3
SYMATTR Value 1N4148
SYMBOL diode 432 -352 R90
WINDOW 0 0 32 VBottom 2
WINDOW 3 32 32 VTop 2
SYMATTR InstName D4
SYMATTR Value 1N4148
SYMBOL voltage -336 80 R0
WINDOW 123 0 0 Left 0
WINDOW 39 0 0 Left 0
SYMATTR InstName V1
SYMATTR Value 15
SYMBOL voltage -208 80 R0
WINDOW 123 0 0 Left 0
WINDOW 39 0 0 Left 0
SYMATTR InstName V2
SYMATTR Value -15
SYMBOL nmos4 1184 -400 R90
SYMATTR InstName M1
SYMATTR Value CMOSN
SYMATTR Value2 l=0.18u w=1.8u ad=0.81e-12 as=0.81e-12 pd=4.5u ps=4.5u
SYMBOL cap 1056 -480 R90
WINDOW 0 0 32 VBottom 2
WINDOW 3 32 32 VTop 2
SYMATTR InstName Cc1
SYMATTR Value 100p
SYMBOL res 1232 -368 R0
SYMATTR InstName RL1
SYMATTR Value 1k
SYMBOL res 1248 -480 R90
WINDOW 0 0 56 VBottom 2
WINDOW 3 32 56 VTop 2
SYMATTR InstName Rbias1
SYMATTR Value 10Meg
SYMBOL voltage 1408 -480 R0
WINDOW 123 0 0 Left 0
WINDOW 39 0 0 Left 0
SYMATTR InstName Vbias1
SYMATTR Value 0.55
SYMBOL res 1536 -368 R0
SYMATTR InstName R5
SYMATTR Value 8Meg
SYMBOL cap 1536 -224 R0
SYMATTR InstName C3
SYMATTR Value 10p
SYMBOL nmos4 1168 480 R90
SYMATTR InstName M2
SYMATTR Value CMOSN
SYMATTR Value2 l=0.18u w=1.8u ad=0.81e-12 as=0.81e-12 pd=4.5u ps=4.5u
SYMBOL cap 1040 400 R90
WINDOW 0 0 32 VBottom 2
WINDOW 3 32 32 VTop 2
SYMATTR InstName Cc2
SYMATTR Value 100p
SYMBOL res 1216 512 R0
SYMATTR InstName RL2
SYMATTR Value 1k
SYMBOL res 1232 400 R90
WINDOW 0 0 56 VBottom 2
WINDOW 3 32 56 VTop 2
SYMATTR InstName Rbias2
SYMATTR Value 10Meg
SYMBOL voltage 1392 400 R0
WINDOW 123 0 0 Left 0
WINDOW 39 0 0 Left 0
SYMATTR InstName Vbias2
SYMATTR Value 0.55
SYMBOL res 1520 512 R0
SYMATTR InstName R6
SYMATTR Value 8Meg
SYMBOL cap 1520 656 R0
SYMATTR InstName C4
SYMATTR Value 10p
SYMBOL voltage -464 448 R0
WINDOW 123 0 0 Left 0
WINDOW 39 0 0 Left 0
SYMATTR InstName V3
SYMATTR Value SINE(0 100m 102k)
TEXT -224 424 Left 2 !.tran 0 5m 1m
TEXT 896 -200 Left 2 ;.tran 5m
TEXT 880 680 Left 2 ;.tran 5m
TEXT -416 248 Left 2 !.include TSMC_180nm.txt
