Version 4.1
SHEET 1 2068 680
WIRE 480 -432 288 -432
WIRE 64 -416 -224 -416
WIRE -80 -336 -128 -336
WIRE 64 -336 64 -416
WIRE 64 -336 -16 -336
WIRE 144 -336 64 -336
WIRE 224 -336 208 -336
WIRE 368 -336 336 -336
WIRE 480 -336 480 -432
WIRE 480 -336 432 -336
WIRE 528 -336 480 -336
WIRE 656 -336 592 -336
WIRE 688 -336 688 -384
WIRE 800 -336 768 -336
WIRE 848 -336 800 -336
WIRE -128 -240 -128 -336
WIRE 224 -240 224 -336
WIRE 224 -240 -128 -240
WIRE 336 -224 336 -336
WIRE 656 -224 656 -336
WIRE 656 -224 336 -224
WIRE -224 -96 -224 -416
WIRE 0 -96 -224 -96
WIRE 32 -96 0 -96
WIRE 224 -96 224 -240
WIRE 224 -96 96 -96
WIRE 288 -96 288 -432
WIRE 416 -96 288 -96
WIRE 480 -96 416 -96
WIRE 656 -96 656 -224
WIRE 656 -96 544 -96
WIRE 832 -32 784 -32
WIRE 1008 -32 912 -32
WIRE 80 96 80 0
WIRE 512 96 512 16
WIRE 1008 112 1008 -32
WIRE 1008 112 928 112
WIRE 1120 112 1008 112
WIRE 224 128 224 -96
WIRE 224 128 160 128
WIRE 240 128 224 128
WIRE 384 128 320 128
WIRE 656 128 656 -96
WIRE 656 128 592 128
WIRE 688 128 688 -336
WIRE 688 128 656 128
WIRE 704 128 688 128
WIRE 784 128 784 -32
WIRE 816 128 784 128
WIRE 0 144 0 -96
WIRE 48 144 0 144
WIRE 384 144 384 128
WIRE 416 144 416 -96
WIRE 416 144 384 144
WIRE 480 144 416 144
WIRE 0 256 0 144
WIRE 176 256 0 256
WIRE 1008 256 1008 112
WIRE 1008 256 256 256
WIRE 80 272 80 160
WIRE 512 336 512 160
WIRE 224 368 224 128
WIRE 336 368 304 368
WIRE 368 368 336 368
WIRE 224 384 224 368
FLAG 80 0 +15
FLAG 80 272 -15
FLAG 48 112 0
FLAG 480 112 0
FLAG 512 16 +15
FLAG 512 336 -15
FLAG 816 96 0
FLAG 768 -176 0
FLAG 896 -176 0
FLAG 768 -256 +15
FLAG 896 -256 -15
FLAG 688 -384 Vcos
FLAG 224 384 Vsin
FLAG 1120 112 Vinv
FLAG 432 368 0
FLAG 912 -336 0
FLAG 336 368 Vsin1
FLAG 800 -336 Vcos1
SYMBOL UA741 80 128 R0
SYMATTR InstName U1
SYMBOL res 272 240 R90
WINDOW 0 0 56 VBottom 2
WINDOW 3 32 56 VTop 2
SYMATTR InstName R1
SYMATTR Value 1.3k
SYMBOL cap 96 -112 R90
WINDOW 0 0 32 VBottom 2
WINDOW 3 32 32 VTop 2
SYMATTR InstName C1
SYMATTR Value 1n
SYMBOL res 336 112 R90
WINDOW 0 0 56 VBottom 2
WINDOW 3 32 56 VTop 2
SYMATTR InstName R2
SYMATTR Value 1.3k
SYMBOL UA741 512 128 R0
SYMATTR InstName U2
SYMBOL cap 544 -112 R90
WINDOW 0 0 32 VBottom 2
WINDOW 3 32 32 VTop 2
SYMATTR InstName C2
SYMATTR Value 1n
SYMBOL res 800 112 R90
WINDOW 0 0 56 VBottom 2
WINDOW 3 32 56 VTop 2
SYMATTR InstName R3
SYMATTR Value 10k
SYMBOL UA741 848 112 R0
SYMATTR InstName U3
SYMBOL res 928 -48 R90
WINDOW 0 0 56 VBottom 2
WINDOW 3 32 56 VTop 2
SYMATTR InstName R4
SYMATTR Value 10k
SYMBOL diode 208 -352 R90
WINDOW 0 0 32 VBottom 2
WINDOW 3 32 32 VTop 2
SYMATTR InstName D1
SYMATTR Value 1N4148
SYMBOL diode -16 -352 R90
WINDOW 0 0 32 VBottom 2
WINDOW 3 32 32 VTop 2
SYMATTR InstName D2
SYMATTR Value 1N4148
SYMBOL diode 592 -352 R90
WINDOW 0 0 32 VBottom 2
WINDOW 3 32 32 VTop 2
SYMATTR InstName D3
SYMATTR Value 1N4148
SYMBOL diode 432 -352 R90
WINDOW 0 0 32 VBottom 2
WINDOW 3 32 32 VTop 2
SYMATTR InstName D4
SYMATTR Value 1N4148
SYMBOL voltage 768 -272 R0
WINDOW 123 0 0 Left 0
WINDOW 39 0 0 Left 0
SYMATTR InstName V1
SYMATTR Value 15
SYMBOL voltage 896 -272 R0
WINDOW 123 0 0 Left 0
WINDOW 39 0 0 Left 0
SYMATTR InstName V2
SYMATTR Value -15
SYMBOL res 320 352 R90
WINDOW 0 0 56 VBottom 2
WINDOW 3 32 56 VTop 2
SYMATTR InstName R5
SYMATTR Value 1.59k
SYMBOL cap 432 352 R90
WINDOW 0 0 32 VBottom 2
WINDOW 3 32 32 VTop 2
SYMATTR InstName C3
SYMATTR Value 1n
SYMBOL res 784 -352 R90
WINDOW 0 0 56 VBottom 2
WINDOW 3 32 56 VTop 2
SYMATTR InstName R6
SYMATTR Value 1.59k
SYMBOL cap 912 -352 R90
WINDOW 0 0 32 VBottom 2
WINDOW 3 32 32 VTop 2
SYMATTR InstName C4
SYMATTR Value 1n
TEXT 1208 -168 Left 2 !.meas tran time_osci find time when V(n003)=0 rise=1\n.meas tran time_oscq find time when v(n005)=0 rise=1\n.meas TRAN phase_diff PARAM (360 * (time_oscq - time_osci) / 10u)
TEXT -224 488 Left 2 !.tran 0 1m 0.9m
